186
#U_ev: -0.173876196453991E+06
H 2.136 2.127 -7.160
O 2.929 2.546 -6.800
C 2.800 2.345 -5.347
H 1.851 2.830 -4.944
H 3.570 2.879 -4.797
C 2.884 0.904 -4.894
H 2.762 0.859 -3.835
O 1.645 0.732 -5.470
C 1.715 -0.714 -5.327
H 0.919 -1.097 -5.987
N 1.476 -1.365 -3.892
C 2.079 -2.479 -3.396
H 2.478 -3.218 -4.060
N 1.925 -2.640 -2.105
C 1.163 -1.573 -1.681
C 0.710 -1.251 -0.406
O 0.704 -1.845 0.690
N 0.086 -0.004 -0.337
H -0.857 -0.241 -0.161
C 0.047 0.791 -1.402
N -0.753 1.771 -1.132
H -1.490 1.767 -1.785
H -0.974 2.018 -0.172
N 0.380 0.494 -2.637
C 0.975 -0.725 -2.751
C 4.048 0.103 -5.441
H 4.668 0.470 -6.212
C 3.131 -1.081 -5.861
H 3.121 -1.354 -6.933
H 3.527 -1.946 -5.321
O 4.736 0.211 -4.204
P 6.094 1.040 -4.196
O 5.800 2.412 -4.685
O 6.949 0.236 -5.052
O 6.693 1.071 -2.753
C 5.832 1.649 -1.781
H 5.702 0.873 -1.104
H 4.823 1.991 -2.209
C 6.361 2.870 -1.104
H 6.073 3.710 -1.678
O 5.769 3.074 0.197
C 6.488 2.209 1.084
H 6.504 2.756 2.022
N 6.074 0.868 1.574
C 6.440 -0.423 1.235
H 7.141 -0.665 0.452
N 5.780 -1.349 1.824
C 4.885 -0.617 2.647
C 3.841 -1.130 3.515
O 3.537 -2.278 3.818
N 2.924 -0.129 3.846
H 1.998 -0.465 4.169
C 3.148 1.164 3.484
N 2.273 1.957 4.022
H 1.361 1.651 4.279
H 2.560 2.946 4.037
N 4.219 1.703 2.894
C 5.006 0.687 2.428
C 7.868 3.042 -0.836
H 8.579 2.597 -1.577
C 7.919 2.261 0.486
H 8.350 1.227 0.410
H 8.550 2.627 1.186
O 8.215 4.400 -0.437
H 7.468 4.822 0.053
H -2.642 -0.735 6.420
O -3.531 -0.630 6.784
C -3.979 0.774 6.463
H -3.107 1.431 6.599
H -4.774 1.110 7.168
C -4.358 0.945 4.987
H -4.934 1.879 4.953
O -3.297 1.178 4.055
C -2.865 -0.064 3.391
H -3.068 0.230 2.396
N -1.614 -0.974 3.451
C -1.653 -2.189 2.883
H -2.400 -2.329 2.157
C -0.787 -3.122 3.288
H -0.898 -4.204 2.914
C 0.274 -2.698 4.136
N 1.179 -3.580 4.424
H 2.096 -3.110 4.507
H 1.189 -4.420 3.898
N 0.493 -1.449 4.452
C -0.437 -0.551 4.159
O -0.159 0.631 4.427
C -5.246 -0.065 4.262
H -5.736 -0.654 5.062
C -4.137 -0.876 3.563
H -3.908 -1.688 4.277
H -4.460 -1.368 2.643
O -6.072 0.718 3.375
P -7.398 0.093 2.870
O -8.314 1.250 2.547
O -7.759 -0.981 3.817
O -6.916 -0.614 1.489
C -5.929 -0.130 0.569
H -5.343 -0.953 0.094
H -5.197 0.481 1.141
C -6.432 0.685 -0.567
H -6.728 1.706 -0.253
O -5.483 0.766 -1.666
C -5.605 -0.328 -2.571
H -5.565 -0.008 -3.593
N -4.519 -1.247 -2.414
C -4.784 -2.593 -2.328
H -5.718 -3.055 -2.557
C -3.939 -3.353 -1.607
H -4.155 -4.426 -1.609
C -2.735 -2.785 -1.053
N -1.919 -3.399 -0.168
H -1.222 -2.793 0.185
H -2.088 -4.279 0.266
N -2.431 -1.518 -1.287
C -3.265 -0.695 -2.000
O -2.975 0.460 -2.272
C -7.610 -0.033 -1.182
H -8.014 -0.797 -0.525
C -7.065 -0.802 -2.466
H -7.322 -1.885 -2.374
H -7.689 -0.476 -3.260
O -8.636 0.809 -1.535
H -8.159 1.618 -1.764
Na -10.543 1.205 3.110
Na 4.675 3.786 -6.622
O 6.661 -2.250 -4.715
H 6.953 -2.153 -3.781
H 6.578 -1.275 -4.962
O -7.981 -1.663 6.254
H -7.860 -1.223 5.366
H -8.243 -2.545 5.894
O 7.764 1.558 -7.132
H 7.435 1.093 -6.279
H 7.181 1.137 -7.752
O -10.230 -0.708 4.569
H -10.664 -1.531 4.754
H -9.355 -1.070 4.219
O 0.075 1.932 6.671
H -0.341 1.317 7.342
H -0.171 1.476 5.859
O 8.853 -0.421 -2.786
H 8.181 0.274 -2.678
H 9.225 -0.138 -3.702
O 2.639 -3.443 1.496
H 2.058 -2.794 1.113
H 3.171 -2.944 2.074
O 10.486 4.240 -1.951
H 9.665 4.336 -1.405
H 10.590 3.288 -1.954
O -1.562 1.042 -4.511
H -2.097 0.624 -3.779
H -0.705 1.129 -3.991
O 6.355 5.617 1.154
H 6.474 5.431 2.120
H 5.896 4.786 0.913
O 7.462 -3.499 1.504
H 6.809 -4.205 1.721
H 6.857 -2.729 1.603
O -2.806 -0.989 9.374
H -2.018 -0.379 9.101
H -3.162 -1.125 8.442
O 1.953 -0.451 -8.654
H 1.855 -0.386 -7.722
H 1.298 0.224 -8.946
O 7.116 4.615 -3.800
H 6.634 3.742 -3.824
H 7.837 4.485 -4.397
O -6.564 -3.475 4.047
H -6.914 -2.570 3.866
H -6.346 -3.796 3.134
O -10.294 -1.370 -1.912
H -10.136 -1.513 -2.899
H -9.657 -0.676 -1.733
O -0.262 -4.228 -3.007
H 0.353 -3.542 -2.622
H -0.221 -4.025 -3.949
O -0.717 1.632 1.844
H -0.819 2.615 1.959
H -0.794 1.317 2.725
O -4.512 3.354 -1.360
H -4.445 2.391 -1.423
H -5.274 3.484 -1.982
O 1.482 -5.667 2.364
H 2.009 -4.968 1.868
H 2.293 -6.315 2.359
