186
#U_ev: -0.173875697180126E+06
H 1.437 2.800 -7.271
O 2.189 3.389 -7.090
C 2.606 3.417 -5.778
H 1.956 3.828 -5.078
H 3.483 4.008 -5.562
C 2.997 2.038 -5.219
H 3.073 2.250 -4.131
O 2.076 0.998 -5.361
C 2.693 -0.250 -5.187
H 2.104 -1.014 -5.676
N 2.876 -0.633 -3.779
C 3.308 -1.921 -3.485
H 3.713 -2.582 -4.224
N 3.154 -2.289 -2.257
C 2.548 -1.151 -1.703
C 1.914 -0.989 -0.447
O 1.965 -1.844 0.447
N 1.291 0.168 -0.234
H 0.237 0.019 -0.068
C 1.559 1.212 -0.994
N 0.500 1.987 -0.681
H -0.339 1.589 -1.054
H 0.422 2.041 0.342
N 2.020 1.137 -2.258
C 2.530 -0.118 -2.564
C 4.443 1.490 -5.566
H 4.737 2.002 -6.510
C 4.045 0.061 -5.912
H 3.890 -0.087 -6.971
H 4.883 -0.594 -5.732
O 5.829 1.547 -4.908
P 6.387 2.789 -4.018
O 5.849 4.044 -4.586
O 7.791 2.452 -4.219
O 6.043 2.504 -2.427
C 5.034 3.286 -1.684
H 4.002 3.023 -2.016
H 5.197 4.340 -1.929
C 5.036 2.991 -0.246
H 4.310 3.718 0.193
O 4.570 1.653 0.101
C 5.016 1.613 1.424
H 4.408 2.350 2.091
N 4.744 0.260 1.980
C 5.565 -0.852 2.124
H 6.548 -0.940 1.578
N 5.169 -1.754 2.955
C 3.980 -1.210 3.451
C 3.128 -1.579 4.586
O 3.195 -2.515 5.401
N 2.015 -0.759 4.754
H 1.275 -1.017 5.428
C 1.754 0.323 3.968
N 0.612 0.925 4.140
H -0.092 0.503 4.703
H 0.490 1.821 3.608
N 2.621 0.793 3.024
C 3.749 -0.016 2.850
C 6.395 3.216 0.419
H 7.182 3.000 -0.325
C 6.481 2.081 1.428
H 7.285 1.407 1.282
H 6.471 2.426 2.475
O 6.547 4.500 1.033
H 5.943 4.564 1.852
H -4.878 0.999 5.922
O -5.214 1.887 5.674
C -4.645 2.345 4.432
H -3.666 2.867 4.627
H -5.299 3.097 3.941
C -4.455 1.179 3.421
H -4.422 1.712 2.463
O -3.361 0.278 3.651
C -3.831 -1.036 3.352
H -3.955 -1.122 2.264
N -2.784 -2.018 3.782
C -2.411 -3.051 2.881
H -3.000 -3.285 1.974
C -1.274 -3.767 3.208
H -0.918 -4.480 2.497
C -0.523 -3.449 4.359
N 0.678 -3.955 4.543
H 1.181 -3.554 5.312
H 0.820 -4.883 4.259
N -0.815 -2.445 5.137
C -1.978 -1.825 4.967
O -2.195 -0.962 5.877
C -5.794 0.251 3.654
H -6.569 0.593 4.424
C -5.252 -1.084 3.848
H -5.164 -1.358 4.950
H -5.919 -1.799 3.281
O -6.531 0.305 2.489
P -7.480 -0.421 1.413
O -7.615 0.546 0.279
O -8.639 -0.744 2.162
O -6.883 -1.759 0.829
C -7.633 -2.285 -0.287
H -8.438 -1.622 -0.577
H -8.016 -3.307 -0.003
C -6.530 -2.486 -1.354
H -6.892 -3.075 -2.243
O -5.813 -1.263 -1.702
C -4.441 -1.764 -1.724
H -4.280 -2.369 -2.641
N -3.671 -0.575 -1.813
C -3.524 -0.120 -3.086
H -4.369 -0.090 -3.758
C -2.296 -0.122 -3.653
H -2.144 -0.008 -4.756
C -1.243 -0.368 -2.734
N -0.148 -0.906 -3.176
H 0.409 -1.259 -2.439
H -0.087 -1.392 -4.007
N -1.409 -0.296 -1.465
C -2.643 -0.148 -0.968
O -2.904 0.371 0.115
C -5.499 -3.448 -0.621
H -5.814 -3.622 0.415
C -4.201 -2.705 -0.550
H -4.229 -2.091 0.348
H -3.329 -3.333 -0.542
O -5.071 -4.688 -1.195
H -4.498 -5.180 -0.592
Na -9.631 0.346 4.002
Na 6.300 6.290 -5.356
O 9.959 3.765 -3.814
H 10.692 3.153 -4.024
H 9.166 3.199 -4.050
O 8.775 2.576 -6.610
H 9.702 2.538 -6.514
H 8.489 2.371 -5.654
O -1.023 1.471 1.531
H -1.872 1.071 1.139
H -1.321 1.752 2.372
O -1.671 0.980 7.490
H -0.781 0.876 7.749
H -1.745 0.341 6.730
O 3.750 5.112 -8.220
H 4.261 4.641 -8.875
H 3.100 4.469 -7.919
O 5.151 4.749 3.306
H 5.294 5.560 3.825
H 4.320 4.450 3.754
O -4.441 -0.364 7.127
H -3.491 -0.399 6.778
H -4.328 -0.090 8.033
O -0.082 2.082 -7.430
H 0.080 1.128 -7.246
H -0.643 2.029 -8.216
O 6.654 -0.796 -3.953
H 6.435 -0.854 -3.039
H 6.296 0.059 -4.203
O 8.639 3.948 2.507
H 9.197 3.803 1.694
H 7.905 4.491 2.100
O -0.022 3.491 3.851
H 0.040 4.245 4.486
H -0.942 3.541 3.570
O -5.505 4.588 6.244
H -5.309 3.617 6.043
H -5.122 4.574 7.112
O -7.847 3.194 0.277
H -7.972 2.280 0.476
H -6.948 3.295 -0.020
O -10.510 -2.084 0.800
H -9.764 -1.907 1.404
H -10.548 -1.137 0.396
O -0.413 -3.101 7.776
H -1.196 -3.177 8.294
H -0.850 -2.820 6.895
O 3.240 -4.214 0.815
H 2.644 -3.494 0.715
H 4.015 -3.933 0.301
O -10.274 0.151 -0.433
H -10.419 0.369 -1.373
H -9.371 0.407 -0.261
O -5.247 -5.360 -3.879
H -5.455 -5.148 -2.939
H -5.300 -4.446 -4.243
O 7.014 4.769 -6.873
H 6.477 4.145 -6.325
H 7.865 4.260 -6.893
O -7.705 0.979 -2.425
H -7.377 0.745 -1.570
H -7.377 1.855 -2.594
