186
#U_ev: -0.173877961927537E+06
H 5.774 1.300 -5.820
O 6.726 1.095 -5.958
C 7.087 0.883 -4.647
H 7.323 1.870 -4.145
H 8.020 0.272 -4.534
C 6.005 0.236 -3.826
H 5.232 1.019 -3.707
O 5.263 -0.792 -4.423
C 5.551 -2.016 -3.762
H 6.078 -2.753 -4.328
N 4.330 -2.591 -3.456
C 3.988 -3.936 -3.458
H 4.606 -4.664 -3.987
N 2.915 -4.263 -2.738
C 2.457 -2.979 -2.297
C 1.489 -2.572 -1.233
O 0.791 -3.302 -0.556
N 1.450 -1.205 -1.049
H 0.823 -0.832 -0.416
C 2.195 -0.314 -1.725
N 2.029 0.948 -1.382
H 1.545 1.147 -0.549
H 2.792 1.528 -1.750
N 3.151 -0.672 -2.585
C 3.287 -1.985 -2.721
C 6.488 -0.157 -2.395
H 7.545 0.146 -2.310
C 6.390 -1.657 -2.512
H 7.330 -2.172 -2.493
H 5.981 -2.102 -1.598
O 5.658 0.308 -1.188
P 5.446 1.889 -0.997
O 4.391 2.315 -1.894
O 6.766 2.512 -1.081
O 5.096 1.983 0.586
C 5.986 1.531 1.605
H 6.782 2.294 1.766
H 6.485 0.592 1.311
C 5.169 1.326 2.900
H 4.826 2.333 3.248
O 4.053 0.472 2.551
C 3.727 -0.339 3.669
H 3.390 0.330 4.478
N 2.746 -1.476 3.536
C 2.926 -2.780 4.035
H 3.770 -3.184 4.567
N 1.941 -3.547 3.666
C 1.070 -2.706 3.007
C -0.273 -2.899 2.560
O -1.002 -3.852 2.713
N -0.835 -1.862 1.848
H -1.649 -2.138 1.289
C -0.204 -0.754 1.617
N -0.783 0.196 0.903
H -1.809 0.260 0.872
H -0.305 1.065 0.915
N 0.999 -0.473 2.097
C 1.609 -1.488 2.776
C 5.841 0.609 4.089
H 6.947 0.481 3.903
C 5.151 -0.786 4.005
H 5.574 -1.407 3.202
H 5.078 -1.318 4.973
O 5.663 1.352 5.276
H 5.871 2.293 5.076
H -7.662 0.362 2.778
O -8.233 0.771 2.158
C -7.633 2.082 2.004
H -7.725 2.712 2.867
H -7.982 2.660 1.252
C -6.121 1.851 1.753
H -5.623 2.828 1.760
O -5.474 1.254 2.890
C -5.038 -0.084 2.554
H -3.966 -0.112 2.842
N -5.685 -1.109 3.412
C -6.694 -1.894 2.932
H -6.942 -1.837 1.904
C -7.341 -2.763 3.762
H -8.171 -3.372 3.462
C -6.938 -2.792 5.048
N -7.601 -3.478 5.908
H -7.395 -3.270 6.862
H -8.321 -4.071 5.530
N -5.957 -2.058 5.577
C -5.274 -1.232 4.783
O -4.332 -0.539 5.163
C -5.730 1.114 0.487
H -6.599 0.885 -0.196
C -4.940 -0.096 1.018
H -5.434 -0.999 0.615
H -3.896 -0.234 0.723
O -4.837 2.002 -0.149
P -3.564 2.856 0.410
O -3.034 2.066 1.528
O -3.923 4.251 0.565
O -2.562 2.588 -0.765
C -1.556 3.490 -1.053
H -0.595 3.171 -0.632
H -1.796 4.470 -0.676
C -1.422 3.721 -2.586
H -0.658 4.549 -2.743
O -0.891 2.533 -3.106
C -1.729 1.878 -4.056
H -1.532 1.926 -5.100
N -2.075 0.460 -3.677
C -1.627 0.001 -2.427
H -1.346 0.721 -1.761
C -1.568 -1.361 -2.195
H -1.357 -1.736 -1.192
C -1.966 -2.214 -3.170
N -1.969 -3.506 -2.910
H -2.137 -4.057 -3.715
H -1.649 -3.869 -2.095
N -2.162 -1.836 -4.414
C -2.287 -0.477 -4.662
O -2.676 -0.117 -5.794
C -2.681 4.041 -3.403
H -3.442 4.550 -2.771
C -3.094 2.622 -3.801
H -3.647 2.167 -2.981
H -3.722 2.653 -4.655
O -2.370 4.704 -4.589
H -3.205 4.788 -5.088
Na -9.310 -0.202 9.692
Na 4.349 3.975 -3.402
O 6.799 3.846 -3.160
H 6.878 3.263 -2.387
H 6.858 4.739 -2.796
O -3.171 4.095 3.172
H -3.119 3.379 2.401
H -3.668 4.737 2.624
O -0.708 -6.366 2.488
H -0.698 -5.405 2.527
H -0.106 -6.433 1.655
O -3.579 6.569 -0.285
H -3.491 5.760 0.164
H -2.715 6.688 -0.733
O -5.442 5.914 1.840
H -4.916 5.425 1.146
H -5.497 6.791 1.456
O 0.764 -5.816 0.204
H 0.818 -6.217 -0.697
H 0.911 -4.873 -0.014
O -3.405 0.258 -8.290
H -2.911 -0.004 -7.446
H -3.003 -0.390 -8.896
O 4.057 -1.214 0.275
H 4.647 -0.693 -0.264
H 3.678 -0.529 0.904
O 4.077 1.468 -5.920
H 3.803 1.825 -6.789
H 3.673 2.145 -5.321
O -9.149 0.497 -0.352
H -9.981 1.037 -0.263
H -8.879 0.464 0.592
O 4.299 -5.247 -0.580
H 4.192 -6.161 -0.987
H 3.887 -4.783 -1.373
O -2.422 -1.820 6.586
H -3.198 -1.631 5.984
H -2.359 -2.768 6.372
O 0.739 -5.305 5.343
H 1.469 -5.843 5.059
H 0.964 -4.446 4.874
O -6.023 -1.978 8.459
H -6.267 -2.025 7.517
H -5.175 -1.538 8.437
O -3.253 1.957 5.242
H -3.143 2.416 4.363
H -3.765 1.172 4.982
O 9.157 1.142 -0.728
H 8.801 0.388 -0.202
H 8.350 1.634 -0.925
O 6.347 4.036 4.794
H 5.774 4.791 4.438
H 6.764 4.540 5.587
O 1.184 2.257 1.129
H 0.625 2.850 1.721
H 1.283 1.481 1.725
O -3.116 -2.966 0.560
H -2.662 -3.778 0.229
H -3.950 -3.072 -0.010
O 0.299 4.383 -5.479
H 0.140 5.127 -6.151
H -0.628 4.378 -5.091
