186
#U_ev: -0.173875563253424E+06
H 5.952 3.037 -6.152
O 5.341 3.834 -6.142
C 4.348 3.627 -5.150
H 3.353 3.846 -5.525
H 4.543 4.312 -4.357
C 4.229 2.248 -4.620
H 3.394 2.213 -3.980
O 4.213 1.043 -5.476
C 4.615 -0.179 -4.879
H 5.460 -0.457 -5.535
N 3.515 -1.183 -4.889
C 3.545 -2.402 -5.533
H 4.524 -2.551 -6.073
N 2.505 -3.205 -5.318
C 1.783 -2.422 -4.488
C 0.506 -2.800 -3.912
O -0.141 -3.866 -4.002
N -0.084 -1.753 -3.265
H -1.036 -1.903 -2.968
C 0.491 -0.441 -3.141
N -0.232 0.430 -2.565
H -1.037 0.057 -2.078
H 0.211 1.330 -2.284
N 1.737 -0.169 -3.595
C 2.333 -1.223 -4.254
C 5.376 1.853 -3.849
H 6.335 1.879 -4.304
C 5.129 0.355 -3.550
H 6.016 -0.078 -3.229
H 4.377 0.247 -2.788
O 5.398 2.436 -2.555
P 6.778 3.047 -1.883
O 6.519 4.470 -1.500
O 7.942 2.774 -2.721
O 6.810 2.182 -0.559
C 6.141 2.463 0.705
H 5.562 1.646 1.088
H 5.380 3.305 0.552
C 7.112 2.738 1.904
H 7.647 3.630 1.541
O 6.666 3.195 3.081
C 6.604 1.982 3.868
H 7.122 2.461 4.676
N 5.429 1.302 4.570
C 5.574 0.674 5.796
H 6.519 0.723 6.353
N 4.494 0.286 6.375
C 3.528 0.667 5.408
C 2.088 0.394 5.398
O 1.392 -0.187 6.218
N 1.402 0.902 4.291
H 0.461 0.528 4.058
C 1.990 1.613 3.273
N 1.282 1.869 2.252
H 0.326 1.682 2.275
H 1.730 2.401 1.453
N 3.345 1.818 3.236
C 4.031 1.378 4.359
C 8.143 1.589 2.200
H 8.312 0.972 1.354
C 7.529 0.868 3.358
H 6.951 0.042 2.912
H 8.290 0.587 4.105
O 9.507 1.975 2.482
H 9.998 1.135 2.666
H -2.916 -0.158 2.221
O -3.157 -0.191 1.314
C -4.534 -0.291 1.119
H -4.709 -0.635 0.070
H -4.927 0.728 1.234
C -5.230 -1.298 2.045
H -6.221 -1.565 1.691
O -4.509 -2.498 2.169
C -3.912 -2.802 3.446
H -4.125 -3.850 3.585
N -2.363 -2.783 3.599
C -1.713 -3.980 3.877
H -2.274 -4.888 3.717
C -0.469 -4.048 4.353
H -0.034 -5.034 4.560
C 0.296 -2.819 4.352
N 1.462 -2.719 4.825
H 1.638 -1.840 5.248
H 1.954 -3.573 5.144
N -0.297 -1.700 4.073
C -1.605 -1.628 3.791
O -2.052 -0.485 3.772
C -5.127 -0.830 3.466
H -4.388 -0.050 3.524
C -4.816 -2.001 4.371
H -4.196 -1.775 5.224
H -5.809 -2.487 4.690
O -6.484 -0.576 3.558
P -7.420 0.718 3.128
O -6.794 1.962 3.571
O -8.812 0.379 3.477
O -7.506 0.808 1.461
C -8.306 -0.141 0.663
H -9.373 -0.046 0.903
H -8.093 -1.168 1.062
C -8.086 -0.238 -0.911
H -8.695 0.532 -1.389
O -6.666 -0.039 -0.992
C -6.312 -0.229 -2.312
H -6.864 0.565 -2.841
N -4.914 -0.178 -2.939
C -4.707 0.556 -4.042
H -5.353 1.373 -4.235
C -3.692 0.271 -4.966
H -3.592 0.951 -5.812
C -2.886 -0.819 -4.707
N -2.060 -1.337 -5.537
H -1.769 -2.233 -5.244
H -2.089 -0.997 -6.457
N -2.992 -1.491 -3.595
C -4.009 -1.260 -2.765
O -4.105 -1.975 -1.749
C -8.262 -1.552 -1.809
H -8.145 -2.398 -1.191
C -7.076 -1.463 -2.734
H -6.486 -2.339 -2.575
H -7.335 -1.406 -3.791
O -9.545 -1.398 -2.519
H -10.238 -1.153 -1.915
Na -10.861 0.433 4.593
Na 4.254 5.856 -1.561
O 9.526 4.369 -3.939
H 8.835 3.764 -3.477
H 9.952 4.696 -3.108
O 9.781 1.277 -3.633
H 8.970 1.792 -3.312
H 10.053 1.861 -4.335
O -5.732 4.007 2.443
H -6.030 3.167 2.924
H -6.344 4.023 1.715
O -5.197 1.536 5.527
H -4.350 1.885 5.233
H -5.764 1.646 4.742
O 5.568 5.893 0.437
H 6.116 5.309 -0.149
H 6.261 6.056 1.147
O -2.241 -4.488 -2.581
H -1.403 -4.274 -3.028
H -2.204 -3.769 -1.858
O 7.906 6.535 -2.340
H 7.454 5.721 -2.081
H 7.647 6.558 -3.295
O 2.726 -0.899 8.463
H 2.777 -1.860 8.429
H 2.331 -0.672 7.585
O -5.897 -3.736 -0.573
H -6.245 -3.724 -1.554
H -5.017 -3.309 -0.724
O -7.899 3.254 0.430
H -7.920 2.270 0.508
H -7.799 3.307 -0.537
O 5.126 5.340 -8.388
H 4.314 5.043 -8.901
H 4.999 4.788 -7.623
O -10.584 2.292 3.135
H -9.720 1.863 3.023
H -10.263 3.214 3.404
O 3.498 -5.733 -5.640
H 2.916 -6.373 -6.113
H 2.884 -4.955 -5.532
O -8.026 3.689 5.366
H -7.548 3.078 4.805
H -8.340 3.094 6.090
O 3.977 4.403 4.240
H 4.852 4.277 4.543
H 3.890 3.560 3.691
O -5.303 2.283 -0.670
H -5.988 2.738 -1.217
H -5.654 1.439 -0.394
O -1.739 -0.884 -8.312
H -1.900 -1.444 -9.111
H -1.328 -0.107 -8.817
O 5.167 0.715 8.991
H 4.197 0.448 8.991
H 5.319 0.654 8.040
O 3.036 -4.945 5.931
H 3.490 -5.186 5.098
H 3.564 -5.478 6.582
O 7.472 2.045 -6.810
H 8.335 2.515 -6.882
H 7.280 1.819 -7.795
