%chk=powat
%mem=500mb

#P B3LYP 6-31G(D) OPT FREQ

PO

0 1
N  4.5070000 -0.5570000  3.2570000
H  4.4220000  0.3740000  3.6410000
C  4.3220000 -0.7980000  1.9060000
H  4.1020000  0.0800000  1.3020000
C  4.4150000 -2.1000000  1.4560000
H  4.2650000 -2.3110000  0.4010000
C  4.7160000 -3.1670000  2.3790000
H  4.7990000 -4.2000000  2.0500000
C  4.8930000 -2.8330000  3.7040000
H  5.1160000 -3.5650000  4.4690000
C  4.7830000 -1.4640000  4.1950000
O  4.9130000 -1.1040000  5.3460000

