--Link1--
%chk=molecule
#HF/6-31G* SCF=tight Test Pop=MK iop(6/33=2) iop(6/42=6) opt

remark line goes here

0   1
    C   -1.9590000000        0.1020000000        0.7950000000     
    C   -1.2490000000        0.6020000000       -0.3030000000     
    C   -2.0710000000        0.8650000000        1.9630000000     
    C   -0.6460000000        1.8630000000       -0.2340000000     
    C   -1.4720000000        2.1290000000        2.0310000000     
    C   -0.7590000000        2.6270000000        0.9340000000     
    H   -1.5580000000        2.7190000000        2.9310000000     
    S   -2.7820000000        0.3650000000        3.0600000000     
    H   -3.5410000000        0.9790000000        3.2740000000     
    H   -0.7870000000       -0.0430000000       -0.9380000000     
    H    0.3730000000        2.0450000000       -0.7840000000     
    H   -0.0920000000        3.5780000000        0.7810000000     
    H   -2.3790000000       -0.9160000000        0.9010000000     


